# generated using pymatgen
data_Al8Cr5
_symmetry_space_group_name_H-M   'P 1'
_cell_length_a   7.87891373
_cell_length_b   7.87891356
_cell_length_c   7.87891376
_cell_angle_alpha   109.69518779
_cell_angle_beta   109.69519443
_cell_angle_gamma   109.69518692
_symmetry_Int_Tables_number   1
_chemical_formula_structural   Al8Cr5
_chemical_formula_sum   'Al16 Cr10'
_cell_volume   373.35579694
_cell_formula_units_Z   2
loop_
 _symmetry_equiv_pos_site_id
 _symmetry_equiv_pos_as_xyz
  1  'x, y, z'
loop_
 _atom_site_type_symbol
 _atom_site_label
 _atom_site_symmetry_multiplicity
 _atom_site_fract_x
 _atom_site_fract_y
 _atom_site_fract_z
 _atom_site_occupancy
  Al  Al0  1  0.69645500  0.69645500  0.69645500  1
  Al  Al1  1  0.64656300  0.00204400  0.64656300  1
  Al  Al2  1  0.64656300  0.64656300  0.00204400  1
  Al  Al3  1  0.00204400  0.64656300  0.64656300  1
  Al  Al4  1  0.33652300  0.55856900  0.33652300  1
  Al  Al5  1  0.33652300  0.33652300  0.55856900  1
  Al  Al6  1  0.55856900  0.33652300  0.33652300  1
  Al  Al7  1  0.73477100  0.38362200  0.73477100  1
  Al  Al8  1  0.73477100  0.73477100  0.38362200  1
  Al  Al9  1  0.38362200  0.73477100  0.73477100  1
  Al  Al10  1  0.28079700  0.66674500  0.03805300  1
  Al  Al11  1  0.03805300  0.28079700  0.66674500  1
  Al  Al12  1  0.66674500  0.03805300  0.28079700  1
  Al  Al13  1  0.66674500  0.28079700  0.03805300  1
  Al  Al14  1  0.03805300  0.66674500  0.28079700  1
  Al  Al15  1  0.28079700  0.03805300  0.66674500  1
  Cr  Cr16  1  0.15112400  0.15112400  0.15112400  1
  Cr  Cr17  1  0.01534300  0.79726600  0.01534300  1
  Cr  Cr18  1  0.01534300  0.01534300  0.79726600  1
  Cr  Cr19  1  0.79726600  0.01534300  0.01534300  1
  Cr  Cr20  1  0.98782800  0.33369000  0.98782800  1
  Cr  Cr21  1  0.98782800  0.98782800  0.33369000  1
  Cr  Cr22  1  0.33369000  0.98782800  0.98782800  1
  Cr  Cr23  1  0.36502300  0.01593200  0.36502300  1
  Cr  Cr24  1  0.36502300  0.36502300  0.01593200  1
  Cr  Cr25  1  0.01593200  0.36502300  0.36502300  1
