# generated using pymatgen
data_Zn3CuS4
_symmetry_space_group_name_H-M   'P 1'
_cell_length_a   7.70784575
_cell_length_b   7.70784575
_cell_length_c   7.70784575
_cell_angle_alpha   60.00000000
_cell_angle_beta   60.00000000
_cell_angle_gamma   60.00000000
_symmetry_Int_Tables_number   1
_chemical_formula_structural   Zn3CuS4
_chemical_formula_sum   'Zn6 Cu2 S8'
_cell_volume   323.80537043
_cell_formula_units_Z   2
loop_
 _symmetry_equiv_pos_site_id
 _symmetry_equiv_pos_as_xyz
  1  'x, y, z'
loop_
 _atom_type_symbol
 _atom_type_oxidation_number
  Zn2+  2.0
  Cu+  1.0
  S2-  -2.0
loop_
 _atom_site_type_symbol
 _atom_site_label
 _atom_site_symmetry_multiplicity
 _atom_site_fract_x
 _atom_site_fract_y
 _atom_site_fract_z
 _atom_site_occupancy
  Zn2+  Zn0  1  0.00000000  0.00000000  0.00000000  1
  Zn2+  Zn1  1  0.00000000  0.50000000  0.00000000  1
  Zn2+  Zn2  1  0.00000000  0.50000000  0.50000000  1
  Zn2+  Zn3  1  0.50000000  0.00000000  0.00000000  1
  Zn2+  Zn4  1  0.50000000  0.00000000  0.50000000  1
  Zn2+  Zn5  1  0.50000000  0.50000000  0.50000000  1
  Cu+  Cu6  1  0.00000000  0.00000000  0.50000000  1
  Cu+  Cu7  1  0.50000000  0.50000000  0.00000000  1
  S2-  S8  1  0.12500000  0.12500000  0.12500000  1
  S2-  S9  1  0.12500000  0.12500000  0.62500000  1
  S2-  S10  1  0.12500000  0.62500000  0.12500000  1
  S2-  S11  1  0.12500000  0.62500000  0.62500000  1
  S2-  S12  1  0.62500000  0.12500000  0.12500000  1
  S2-  S13  1  0.62500000  0.12500000  0.62500000  1
  S2-  S14  1  0.62500000  0.62500000  0.12500000  1
  S2-  S15  1  0.62500000  0.62500000  0.62500000  1
