# generated using pymatgen
data_ZnCuS2
_symmetry_space_group_name_H-M   'P 1'
_cell_length_a   7.56620430
_cell_length_b   7.52561110
_cell_length_c   7.52561100
_cell_angle_alpha   60.00000484
_cell_angle_beta   60.17732171
_cell_angle_gamma   60.17731983
_symmetry_Int_Tables_number   1
_chemical_formula_structural   ZnCuS2
_chemical_formula_sum   'Zn4 Cu4 S8'
_cell_volume   303.81235562
_cell_formula_units_Z   4
loop_
 _symmetry_equiv_pos_site_id
 _symmetry_equiv_pos_as_xyz
  1  'x, y, z'
loop_
 _atom_site_type_symbol
 _atom_site_label
 _atom_site_symmetry_multiplicity
 _atom_site_fract_x
 _atom_site_fract_y
 _atom_site_fract_z
 _atom_site_occupancy
  Zn  Zn0  1  0.99817600  0.00060800  0.00060800  1
  Zn  Zn1  1  0.99817600  0.00060800  0.50060800  1
  Zn  Zn2  1  0.99817600  0.50060800  0.00060800  1
  Zn  Zn3  1  0.99817600  0.50060800  0.50060800  1
  Cu  Cu4  1  0.50206600  0.99931100  0.99931100  1
  Cu  Cu5  1  0.50206600  0.99931100  0.49931100  1
  Cu  Cu6  1  0.50206600  0.49931100  0.99931100  1
  Cu  Cu7  1  0.50206600  0.49931100  0.49931100  1
  S  S8  1  0.13051200  0.12316300  0.12316300  1
  S  S9  1  0.13051200  0.12316300  0.62316300  1
  S  S10  1  0.13051200  0.62316300  0.12316300  1
  S  S11  1  0.13051200  0.62316300  0.62316300  1
  S  S12  1  0.61924600  0.12691800  0.12691800  1
  S  S13  1  0.61924600  0.12691800  0.62691800  1
  S  S14  1  0.61924600  0.62691800  0.12691800  1
  S  S15  1  0.61924600  0.62691800  0.62691800  1
